opendss_networks/LV11_216bus/Loads.dss
new load.Ld38_LOAD_A phases=1 bus1=B1467.1.4 kv=0.249992666559  vminpu=0.1 vmaxpu=2
new load.Ld40_LOAD_B phases=1 bus1=B2235.2.4 kv=0.249992666559  vminpu=0.1 vmaxpu=2
new load.Ld94_LOAD_C phases=1 bus1=B735.3.4 kv=0.249992666559  vminpu=0.1 vmaxpu=2
new load.Ld106_LOAD_A phases=1 bus1=B1888.1.4 kv=0.249992666559  vminpu=0.1 vmaxpu=2
new load.Ld118_LOAD_B phases=1 bus1=B838.2.4 kv=0.249992666559  vminpu=0.1 vmaxpu=2
new load.Ld174_LOAD_C phases=1 bus1=B1814.3.4 kv=0.249992666559  vminpu=0.1 vmaxpu=2
new load.Ld317_LOAD_A phases=1 bus1=B2829.1.4 kv=0.249992666559  vminpu=0.1 vmaxpu=2
new load.Ld352_LOAD_B phases=1 bus1=B3060.2.4 kv=0.249992666559  vminpu=0.1 vmaxpu=2
new load.Ld356_LOAD_C phases=1 bus1=B1680.3.4 kv=0.249992666559  vminpu=0.1 vmaxpu=2
new load.Ld362_LOAD_A phases=1 bus1=B1919.1.4 kv=0.249992666559  vminpu=0.1 vmaxpu=2
new load.Ld370_LOAD_B phases=1 bus1=B1548.2.4 kv=0.249992666559  vminpu=0.1 vmaxpu=2
new load.Ld540_LOAD_C phases=1 bus1=B588.3.4 kv=0.249992666559  vminpu=0.1 vmaxpu=2
new load.Ld585_LOAD_A phases=1 bus1=B2916.1.4 kv=0.249992666559  vminpu=0.1 vmaxpu=2
new load.Ld614_LOAD_B phases=1 bus1=B2088.2.4 kv=0.249992666559  vminpu=0.1 vmaxpu=2
new load.Ld632_LOAD_C phases=1 bus1=B882.3.4 kv=0.249992666559  vminpu=0.1 vmaxpu=2
new load.Ld680_LOAD_A phases=1 bus1=B3148.1.4 kv=0.249992666559  vminpu=0.1 vmaxpu=2
new load.Ld749_LOAD_B phases=1 bus1=B910.2.4 kv=0.249992666559  vminpu=0.1 vmaxpu=2
new load.Ld757_LOAD_C phases=1 bus1=B2472.3.4 kv=0.249992666559  vminpu=0.1 vmaxpu=2
new load.Ld879_LOAD_A phases=1 bus1=B596.1.4 kv=0.249992666559  vminpu=0.1 vmaxpu=2
new load.Ld905_LOAD_B phases=1 bus1=B352.2.4 kv=0.249992666559  vminpu=0.1 vmaxpu=2
new load.Ld937_LOAD_C phases=1 bus1=B831.3.4 kv=0.249992666559  vminpu=0.1 vmaxpu=2
new load.Ld994_LOAD_A phases=1 bus1=B569.1.4 kv=0.249992666559  vminpu=0.1 vmaxpu=2
new load.Ld1003_LOAD_B phases=1 bus1=B3059.2.4 kv=0.249992666559  vminpu=0.1 vmaxpu=2
new load.Ld1039_LOAD_C phases=1 bus1=B1717.3.4 kv=0.249992666559  vminpu=0.1 vmaxpu=2
new load.Ld1066_LOAD_A phases=1 bus1=B3295.1.4 kv=0.249992666559  vminpu=0.1 vmaxpu=2
new load.Ld1109_LOAD_B phases=1 bus1=B1822.2.4 kv=0.249992666559  vminpu=0.1 vmaxpu=2
new load.Ld1140_LOAD_C phases=1 bus1=B3256.3.4 kv=0.249992666559  vminpu=0.1 vmaxpu=2
new load.Ld1242_LOAD_A phases=1 bus1=B1029.1.4 kv=0.249992666559  vminpu=0.1 vmaxpu=2
new load.Ld1258_LOAD_B phases=1 bus1=B218.2.4 kv=0.249992666559  vminpu=0.1 vmaxpu=2
new load.Ld1287_LOAD_C phases=1 bus1=B1541.3.4 kv=0.249992666559  vminpu=0.1 vmaxpu=2
new load.Ld1307_LOAD_A phases=1 bus1=B901.1.4 kv=0.249992666559  vminpu=0.1 vmaxpu=2
new load.Ld1370_LOAD_B phases=1 bus1=B1777.2.4 kv=0.249992666559  vminpu=0.1 vmaxpu=2
new load.Ld1400_LOAD_C phases=1 bus1=B1340.3.4 kv=0.249992666559  vminpu=0.1 vmaxpu=2
new load.Ld1420_LOAD_A phases=1 bus1=B2667.1.4 kv=0.249992666559  vminpu=0.1 vmaxpu=2
new load.Ld1439_LOAD_B phases=1 bus1=B93.2.4 kv=0.249992666559  vminpu=0.1 vmaxpu=2
new load.Ld1469_LOAD_C phases=1 bus1=B2915.3.4 kv=0.249992666559  vminpu=0.1 vmaxpu=2
new load.Ld1513_LOAD_A phases=1 bus1=B1187.1.4 kv=0.249992666559  vminpu=0.1 vmaxpu=2
new load.Ld1522_LOAD_B phases=1 bus1=B1076.2.4 kv=0.249992666559  vminpu=0.1 vmaxpu=2
new load.Ld1523_LOAD_C phases=1 bus1=B2186.3.4 kv=0.249992666559  vminpu=0.1 vmaxpu=2
new load.Ld1530_LOAD_A phases=1 bus1=B68.1.4 kv=0.249992666559  vminpu=0.1 vmaxpu=2
new load.Ld1543_LOAD_B phases=1 bus1=B1167.2.4 kv=0.249992666559  vminpu=0.1 vmaxpu=2
new load.Ld1549_LOAD_C phases=1 bus1=B2692.3.4 kv=0.249992666559  vminpu=0.1 vmaxpu=2
new load.Ld1568_LOAD_A phases=1 bus1=B2602.1.4 kv=0.249992666559  vminpu=0.1 vmaxpu=2
new load.Ld1641_LOAD_B phases=1 bus1=B2937.2.4 kv=0.249992666559  vminpu=0.1 vmaxpu=2
new load.Ld1702_LOAD_C phases=1 bus1=B2960.3.4 kv=0.249992666559  vminpu=0.1 vmaxpu=2
new load.Ld1715_LOAD_A phases=1 bus1=B977.1.4 kv=0.249992666559  vminpu=0.1 vmaxpu=2
new load.Ld1766_LOAD_B phases=1 bus1=B1918.2.4 kv=0.249992666559  vminpu=0.1 vmaxpu=2
new load.Ld1780_LOAD_C phases=1 bus1=B2681.3.4 kv=0.249992666559  vminpu=0.1 vmaxpu=2
new load.Ld1783_LOAD_A phases=1 bus1=B3105.1.4 kv=0.249992666559  vminpu=0.1 vmaxpu=2
new load.Ld1811_LOAD_B phases=1 bus1=B1064.2.4 kv=0.249992666559  vminpu=0.1 vmaxpu=2
new load.Ld1857_LOAD_C phases=1 bus1=B1712.3.4 kv=0.249992666559  vminpu=0.1 vmaxpu=2
new load.Ld1891_LOAD_A phases=1 bus1=B469.1.4 kv=0.249992666559  vminpu=0.1 vmaxpu=2
new load.Ld1935_LOAD_B phases=1 bus1=B1664.2.4 kv=0.249992666559  vminpu=0.1 vmaxpu=2
new load.Ld2057_LOAD_C phases=1 bus1=B675.3.4 kv=0.249992666559  vminpu=0.1 vmaxpu=2
new load.Ld2061_LOAD_A phases=1 bus1=B1447.1.4 kv=0.249992666559  vminpu=0.1 vmaxpu=2
new load.Ld2117_LOAD_B phases=1 bus1=B3017.2.4 kv=0.249992666559  vminpu=0.1 vmaxpu=2
new load.Ld2163_LOAD_C phases=1 bus1=B2896.3.4 kv=0.249992666559  vminpu=0.1 vmaxpu=2
new load.Ld2214_LOAD_A phases=1 bus1=B477.1.4 kv=0.249992666559  vminpu=0.1 vmaxpu=2
new load.Ld2304_LOAD_B phases=1 bus1=B1443.2.4 kv=0.249992666559  vminpu=0.1 vmaxpu=2
new load.Ld2315_LOAD_C phases=1 bus1=B306.3.4 kv=0.249992666559  vminpu=0.1 vmaxpu=2
new load.Ld2326_LOAD_A phases=1 bus1=B2159.1.4 kv=0.249992666559  vminpu=0.1 vmaxpu=2
new load.Ld2346_LOAD_B phases=1 bus1=B3045.2.4 kv=0.249992666559  vminpu=0.1 vmaxpu=2
new load.Ld2479_LOAD_C phases=1 bus1=B3032.3.4 kv=0.249992666559  vminpu=0.1 vmaxpu=2
new load.Ld2510_LOAD_A phases=1 bus1=B431.1.4 kv=0.249992666559  vminpu=0.1 vmaxpu=2
new load.Ld2528_LOAD_B phases=1 bus1=B1574.2.4 kv=0.249992666559  vminpu=0.1 vmaxpu=2
new load.Ld2536_LOAD_C phases=1 bus1=B2102.3.4 kv=0.249992666559  vminpu=0.1 vmaxpu=2
new load.Ld2544_LOAD_A phases=1 bus1=B158.1.4 kv=0.249992666559  vminpu=0.1 vmaxpu=2
new load.Ld2621_LOAD_B phases=1 bus1=B2661.2.4 kv=0.249992666559  vminpu=0.1 vmaxpu=2
new load.Ld2637_LOAD_C phases=1 bus1=B2689.3.4 kv=0.249992666559  vminpu=0.1 vmaxpu=2
new load.Ld2663_LOAD_A phases=1 bus1=B1056.1.4 kv=0.249992666559  vminpu=0.1 vmaxpu=2
new load.Ld2760_LOAD_B phases=1 bus1=B91.2.4 kv=0.249992666559  vminpu=0.1 vmaxpu=2
new load.Ld2829_LOAD_C phases=1 bus1=B2265.3.4 kv=0.249992666559  vminpu=0.1 vmaxpu=2
new load.Ld2918_LOAD_A phases=1 bus1=B900.1.4 kv=0.249992666559  vminpu=0.1 vmaxpu=2
new load.Ld2968_LOAD_B phases=1 bus1=B898.2.4 kv=0.249992666559  vminpu=0.1 vmaxpu=2
new load.Ld3029_LOAD_C phases=1 bus1=B2419.3.4 kv=0.249992666559  vminpu=0.1 vmaxpu=2
new load.Ld3109_LOAD_A phases=1 bus1=B2425.1.4 kv=0.249992666559  vminpu=0.1 vmaxpu=2
new load.Ld3234_LOAD_B phases=1 bus1=B1708.2.4 kv=0.249992666559  vminpu=0.1 vmaxpu=2
new load.Ld3239_LOAD_C phases=1 bus1=B1577.3.4 kv=0.249992666559  vminpu=0.1 vmaxpu=2
new load.Ld3278_LOAD_A phases=1 bus1=B430.1.4 kv=0.249992666559  vminpu=0.1 vmaxpu=2
new load.Ld3291_LOAD_B phases=1 bus1=B3194.2.4 kv=0.249992666559  vminpu=0.1 vmaxpu=2
new load.Ld3292_LOAD_C phases=1 bus1=B2126.3.4 kv=0.249992666559  vminpu=0.1 vmaxpu=2
new load.Ld3480_LOAD_A phases=1 bus1=B1107.1.4 kv=0.249992666559  vminpu=0.1 vmaxpu=2
new load.Ld3597_LOAD_B phases=1 bus1=B126.2.4 kv=0.249992666559  vminpu=0.1 vmaxpu=2
new load.Ld3714_LOAD_C phases=1 bus1=B2035.3.4 kv=0.249992666559  vminpu=0.1 vmaxpu=2
new load.Ld3729_LOAD_A phases=1 bus1=B2356.1.4 kv=0.249992666559  vminpu=0.1 vmaxpu=2
new load.Ld3781_LOAD_B phases=1 bus1=B3120.2.4 kv=0.249992666559  vminpu=0.1 vmaxpu=2
new load.Ld3888_LOAD_C phases=1 bus1=B2907.3.4 kv=0.249992666559  vminpu=0.1 vmaxpu=2
new load.Ld3890_LOAD_A phases=1 bus1=B685.1.4 kv=0.249992666559  vminpu=0.1 vmaxpu=2
new load.Ld3926_LOAD_B phases=1 bus1=B1353.2.4 kv=0.249992666559  vminpu=0.1 vmaxpu=2
new load.Ld3948_LOAD_C phases=1 bus1=B502.3.4 kv=0.249992666559  vminpu=0.1 vmaxpu=2
new load.Ld3961_LOAD_A phases=1 bus1=B1612.1.4 kv=0.249992666559  vminpu=0.1 vmaxpu=2
new load.Ld4057_LOAD_B phases=1 bus1=B115.2.4 kv=0.249992666559  vminpu=0.1 vmaxpu=2
new load.Ld4065_LOAD_C phases=1 bus1=B2931.3.4 kv=0.249992666559  vminpu=0.1 vmaxpu=2
new load.Ld4074_LOAD_A phases=1 bus1=B753.1.4 kv=0.249992666559  vminpu=0.1 vmaxpu=2
new load.Ld4094_LOAD_B phases=1 bus1=B322.2.4 kv=0.249992666559  vminpu=0.1 vmaxpu=2
new load.Ld4151_LOAD_C phases=1 bus1=B2423.3.4 kv=0.249992666559  vminpu=0.1 vmaxpu=2
new load.Ld4193_LOAD_A phases=1 bus1=B1815.1.4 kv=0.249992666559  vminpu=0.1 vmaxpu=2
new load.Ld4201_LOAD_B phases=1 bus1=B2221.2.4 kv=0.249992666559  vminpu=0.1 vmaxpu=2
new load.Ld4238_LOAD_C phases=1 bus1=B1074.3.4 kv=0.249992666559  vminpu=0.1 vmaxpu=2
new load.Ld4275_LOAD_A phases=1 bus1=B1793.1.4 kv=0.249992666559  vminpu=0.1 vmaxpu=2
new load.Ld4308_LOAD_B phases=1 bus1=B3317.2.4 kv=0.249992666559  vminpu=0.1 vmaxpu=2
new load.Ld4372_LOAD_C phases=1 bus1=B1079.3.4 kv=0.249992666559  vminpu=0.1 vmaxpu=2
new load.Ld4438_LOAD_A phases=1 bus1=B1126.1.4 kv=0.249992666559  vminpu=0.1 vmaxpu=2
new load.Ld4504_LOAD_B phases=1 bus1=B1078.2.4 kv=0.249992666559  vminpu=0.1 vmaxpu=2
new load.Ld4551_LOAD_C phases=1 bus1=B3074.3.4 kv=0.249992666559  vminpu=0.1 vmaxpu=2
new load.Ld4579_LOAD_A phases=1 bus1=B2229.1.4 kv=0.249992666559  vminpu=0.1 vmaxpu=2
new load.Ld4655_LOAD_B phases=1 bus1=B2204.2.4 kv=0.249992666559  vminpu=0.1 vmaxpu=2
new load.Ld4658_LOAD_C phases=1 bus1=B572.3.4 kv=0.249992666559  vminpu=0.1 vmaxpu=2
new load.Ld4691_LOAD_A phases=1 bus1=B2076.1.4 kv=0.249992666559  vminpu=0.1 vmaxpu=2
new load.Ld4699_LOAD_B phases=1 bus1=B3279.2.4 kv=0.249992666559  vminpu=0.1 vmaxpu=2
